12        

C       -0.169097   -0.002191   -2.415281
C        1.226063   -0.002420   -2.415053
C        1.923799   -0.003643   -3.622689
C        1.226342   -0.005839   -4.831310
C       -0.168483   -0.006089   -4.831460
C       -0.866281   -0.003869   -3.623370
H       -0.719011   -0.000777   -1.463055
H        1.775416   -0.000319   -1.462451
H        3.023479   -0.003189   -3.622589
H        1.776698   -0.006862   -5.783363
H       -0.718449   -0.007827   -5.783830
Br      -2.776281   -0.003870   -3.624000
