6         

I        4.618802    0.000000    0.000000
C       12.618802   -0.000000    0.000000
I       -2.309401    4.000000    0.000000
C       -6.309401   10.928203    0.000000
I       -2.309401   -4.000000    0.000000
C       -6.309401  -10.928203    0.000000
PLANE
    0.000000     0.000000    55.425626    -0.000000