        12

         C   -0.242814    3.170502   -0.903383
         C    1.152346    3.170730   -0.903155
         C    1.849687    3.171954    0.304709
         C    1.151835    3.174149    1.513103
         C   -0.242990    3.174400    1.512796
         C   -0.940393    3.172180    0.304478
         H   -0.792417    3.169087   -1.855789
         H    1.702010    3.168630   -1.855577
         H    2.949367    3.171500    0.304969
         H    1.701879    3.175173    2.465335
         H   -0.793268    3.176138    2.464986
        Br   -2.850393    3.172180    0.304483
