52

C -6.48117936022840 -4.09444437828644 -11.65844158857895
H -5.65045986813497 -3.55367609223467 -11.16039749926142
H -6.82495300494954 -3.43713208754793 -12.48211718451121
N -7.55088563131704 -4.46825415392554 -9.36804086130686
H -6.68061272715170 -4.50200453354395 -8.79689122804813
C -7.64409425795596 -4.31896946928780 -10.74223428372273
C -8.80159196332605 -4.57909713518572 -8.86251571916298
H -9.04065898359942 -4.70242313252480 -7.80187771412989
N -9.71037773057017 -4.50708927854759 -9.83700237152454
C -9.00765429179260 -4.34393490971989 -11.01187915621358
H -9.52884425383620 -4.23292866036863 -11.97103320959443
C -11.83486245517140 -6.29978308035767 -5.60102617779660
H -12.64948652344579 -7.03560734245298 -5.45310091267616
H -11.79017169292778 -5.71986711949104 -4.65463317173091
C -12.30476776839098 -5.33793556832951 -6.72270667074512
O -11.45369944575899 -4.97561391356932 -7.62487471579505
O -13.49875965379899 -4.96401465012136 -6.68196641324787
C -14.37452876089300 -9.28361806662878 -10.49245349224882
H -15.23913270790586 -9.12724604738332 -9.81788930977747
H -13.89808159930084 -10.23769365750117 -10.18995458062131
N -12.03996135780038 -8.29670880236700 -10.68695378418143
H -11.54421384565018 -9.17586028459425 -10.92793121883396
C -13.38900516047016 -8.15691938935345 -10.38001701431174
C -11.42683849304831 -7.10102269440352 -10.51979003982486
H -10.34949047892799 -6.94268803534824 -10.65015907918052
N -12.30890888205774 -6.18434932780560 -10.12671502743215
C -13.52951136045220 -6.81789240129463 -10.02910722501933
H -14.41956799730384 -6.25988632671208 -9.71537389541867
C -13.71470377122649 -2.60796915494180 -9.16557464224635
H -11.01836456320236 -0.00056141647371 -11.83757426752920
H -14.34959774866361 -2.22884214445879 -8.31339448873303
O -13.87251854531238 -3.96260336473562 -9.33390590690754
C -14.17484255716793 -1.89291292549797 -10.47130979091826
H -14.16395805462848 -0.79637088438539 -10.32201228564476
H -15.19633105622207 -2.21876506748858 -10.74620879019155
P -13.01532694405421 -2.27458355350399 -11.85084752320175
O -12.03751801376252 -3.42724518530838 -11.42722192464815
O -12.39655573576343 -1.00925460865871 -12.45164313110312
O -14.05617981815661 -2.92014380675963 -12.99953291209592
H -13.78771098979475 -2.57471239231692 -13.88655677555190
Fe -11.81718189641291 -4.14624274388692 -9.46435249228412
O -9.81325888608878 -1.41578480438985 -9.82751476349458
H -9.89260714099459 -0.55489772486858 -10.44356327198122
H -10.73331971019461 -1.55125543885609 -9.49682111583053
O -10.83480688490520 -2.94785387984790 -14.34827845393942
H -10.16523378654814 -3.50643203535533 -14.82029452292318
H -10.37455017250433 -2.56153440205130 -13.56365333613071
O -12.36685707160192 -2.33236385280767 -8.91491170212990
O -10.12061770700161 0.29650284958634 -11.54369399370144
h -6.13018243919122 -4.98654035560857 -12.17712466322221
h -10.89244578520401 -6.82932232386917 -5.74068724305638
h -14.71390342648241 -9.48112886731104 -11.50925264809458
